*SPEF "IEEE 1481-1998"
*DESIGN "usr_nbit"
*DATE "Wed Nov 10 12:24:52 2021"
*VENDOR "AUC CSCE Department"
*PROGRAM "SPEF Extractor"
*VERSION "1.0"
*DESIGN_FLOW "PIN_CAP NONE"
*DIVIDER /
*DELIMITER :
*BUS_DELIMITER []
*T_UNIT 1.00000 NS
*C_UNIT 1.00000 PF
*R_UNIT 1.00000 OHM
*L_UNIT 1.00000 HENRY


*NAME_MAP
*0 clk
*1 left
*2 parallelin[0]
*3 parallelin[1]
*4 parallelin[2]
*5 parallelin[3]
*6 parallelout[0]
*7 parallelout[1]
*8 parallelout[2]
*9 parallelout[3]
*10 right
*11 rst
*12 select[0]
*13 select[1]
*14 _00_
*15 _01_
*16 _02_
*17 _03_
*18 _04_
*19 _05_
*20 _06_
*21 _07_
*22 _08_
*23 _09_
*24 _10_
*25 _11_
*26 _12_
*27 _13_
*28 _14_
*29 _15_
*30 _16_
*31 _17_
*32 _18_
*33 net1
*34 net2
*35 net3
*36 net4
*37 net5
*38 net6
*39 net7
*40 net8
*41 net9
*42 net10
*43 net11
*44 net12
*45 net13
*46 clknet_0_clk
*47 clknet_1_0_0_clk
*48 clknet_1_1_0_clk

*D_NET *0 0.00218934855866
*CONN
*P clk I
*I clkbuf_0_clk:A I
*CAP
0 *0:1 0.00081829101114
1 *0:3 4.640188412000001e-05
2 *0:4 0.00088449744484
3 *0:6 0.00044015821855999997
4 *0:7 0
5 clkbuf_0_clk:A 0
*RES
0 *0:1 *0:2 9.25892857142857
1 *0:3 *0:4 0.4107142857142857
2 *0:4 *0:5 10.017857142857142
3 *0:6 *0:7 4.517857142857142
4 *0:6 *0:2 0
5 *0:7 *0:3 0
6 clkbuf_0_clk:A clkbuf_0_clk:A 0
7 clkbuf_0_clk:A *0:5 0
*END

*D_NET *1 0.00148601589008
*CONN
*P left I
*I input1:A I
*CAP
6 *1:1 0.00024524937376
7 *1:2 0.00044753498242
8 *1:4 0.0007932315339000001
9 input1:A 0
*RES
8 *1:1 input1:A 2.464285714285714
9 *1:2 *1:3 5.008928571428571
10 *1:4 *1:5 1.4053000000000002
11 input1:A input1:A 0
12 *1:1 *1:3 0
13 *1:2 *1:4 0
*END

*D_NET *2 0.0018053835980199999
*CONN
*P parallelin[0] I
*I input2:A I
*CAP
10 input2:A 4.017137184e-05
11 *2:1 0.0009469212150399999
12 *2:3 0.00081829101114
13 *2:2 0
*RES
14 input2:A *2:1 0.30357142857142855
15 *2:1 *2:2 9.857142857142856
16 *2:3 *2:4 9.25892857142857
17 input2:A input2:A 0
18 *2:2 *2:3 0
*END

*D_NET *3 0.00138937791458
*CONN
*P parallelin[1] I
*I input3:A I
*CAP
14 *3:1 0.0008712561581000002
15 *3:3 0.0005181217564799999
16 input3:A 0
*RES
19 *3:1 *3:2 9.866071428571429
20 *3:3 input3:A 5.339285714285714
21 *3:3 *3:2 0
22 input3:A input3:A 0
*END

*D_NET *4 0.00056760653272
*CONN
*P parallelin[2] I
*I input4:A I
*CAP
17 *4:1 5.029638022e-05
18 *4:3 0.0005173101524999999
19 input4:A 0
*RES
23 *4:1 *4:2 0.45535714285714285
24 *4:3 *4:4 0.9008333333333334
25 input4:A input4:A 0
26 input4:A *4:2 0
27 *4:1 *4:3 0
*END

*D_NET *5 0.00109002295838
*CONN
*P parallelin[3] I
*I input5:A I
*CAP
20 *5:1 0.00024524937376
21 *5:2 0.0008447735846200001
22 input5:A 0
*RES
28 *5:1 input5:A 2.464285714285714
29 *5:2 *5:3 9.5625
30 input5:A input5:A 0
31 *5:1 *5:2 0
*END

*D_NET *6 0.00190554262064
*CONN
*P parallelout[0] O
*I output10:X O
*CAP
23 *6:1 0.00055346527634
24 output10:X 0.00040117644959999997
25 *6:4 0.0009509008947
26 *6:3 0
27 *6:2 0
*RES
32 *6:1 *6:2 6.223214285714285
33 output10:X *6:3 4.107142857142857
34 *6:4 *6:5 1.6935666666666669
35 output10:X output10:X 0
36 *6:3 *6:1 0
37 *6:2 *6:5 0
*END

*D_NET *7 0.00054112395924
*CONN
*P parallelout[1] O
*I output11:X O
*CAP
28 *7:1 0.0005173101524999999
29 *7:3 2.3813806740000006e-05
30 *7:4 0
31 output11:X 0
*RES
38 *7:1 *7:2 0.9008333333333334
39 *7:3 *7:4 0.15178571428571427
40 *7:4 *7:2 0
41 output11:X output11:X 0
42 output11:X *7:3 0
*END

*D_NET *8 0.00117199575346
*CONN
*P parallelout[2] O
*I output12:X O
*CAP
32 *8:1 0.00032321291168
33 *8:2 0.00015622667414000004
34 *8:3 4.640188412000001e-05
35 *8:4 0.00064615428352
36 output12:X 0
*RES
43 *8:1 output12:X 3.2857142857142856
44 *8:2 *8:3 1.669642857142857
45 *8:3 *8:4 0.4107142857142857
46 *8:4 *8:5 7.285714285714286
47 output12:X output12:X 0
48 *8:1 *8:2 0
*END

*D_NET *9 0.00300504990264
*CONN
*P parallelout[3] O
*I output13:X O
*CAP
37 *9:1 0.00063291299678
38 *9:3 0.0015421609977
39 output13:X 0.00082997590816
40 *9:5 0
*RES
49 *9:1 *9:2 7.133928571428571
50 *9:3 *9:4 2.774566666666667
51 output13:X *9:5 8.625
52 output13:X output13:X 0
53 *9:5 *9:2 0
54 *9:1 *9:3 0
*END

*D_NET *10 0.00056760653272
*CONN
*P right I
*I input6:A I
*CAP
41 *10:1 0.0005173101524999999
42 *10:3 5.029638022e-05
43 input6:A 0
*RES
55 *10:1 *10:2 0.9008333333333334
56 *10:3 *10:4 0.45535714285714285
57 *10:3 *10:2 0
58 input6:A input6:A 0
59 input6:A *10:4 0
*END

*D_NET *11 0.0021580966156200003
*CONN
*P rst I
*I input7:A I
*CAP
44 input7:A 5.034052896000001e-05
45 *11:1 4.017137184e-05
46 *11:2 0.0005960852944
47 *11:4 0.00044134782144
48 *11:6 0.0010301515989800001
49 *11:5 0
*RES
60 input7:A *11:1 0.4107142857142857
61 *11:1 *11:2 0.30357142857142855
62 *11:2 *11:3 6.160714285714286
63 *11:4 *11:3 0.30357142857142855
64 *11:4 *11:5 4.107142857142857
65 *11:6 *11:7 11.687499999999998
66 input7:A input7:A 0
67 *11:5 *11:6 0
*END

*D_NET *12 0.0017973369501
*CONN
*P select[0] I
*I input8:A I
*CAP
50 *12:1 0.00071422020416
51 *12:3 0.0010831167459400002
52 input8:A 0
53 *12:2 0
*RES
68 *12:1 input8:A 0.30357142857142855
69 *12:1 *12:2 6.982142857142857
70 *12:3 *12:4 12.294642857142856
71 input8:A input8:A 0
72 *12:2 *12:4 0
*END

*D_NET *13 0.0036707057439800002
*CONN
*P select[1] I
*I input9:A I
*CAP
54 *13:1 0.00020919182110000001
55 *13:3 0.0010248847529600001
56 *13:5 0.0019173178105600002
57 *13:7 0.0005193113593599999
58 *13:4 0
59 *13:8 0
60 input9:A 0
*RES
73 *13:1 *13:2 2.276785714285714
74 *13:3 *13:4 10.678571428571429
75 *13:5 *13:6 21.857142857142854
76 *13:7 *13:8 4.928571428571428
77 *13:7 input9:A 0.30357142857142855
78 *13:4 *13:2 0
79 *13:3 *13:5 0
80 *13:8 *13:6 0
81 input9:A input9:A 0
*END

*D_NET *14 0.0025385600403600005
*CONN
*I _37_:S I
*I _36_:S I
*I _35_:S I
*I _34_:S I
*I _28_:A I
*I _26_:Y O
*CAP
61 *14:1 0.00012830406688
62 *14:2 0.00038132854871999994
63 *14:4 8.932229792e-05
64 *14:5 0.00048725884264
65 _37_:S 8.932229792e-05
66 *14:7 0.00024891568132000004
67 _28_:A 0.0002062676048
68 *14:9 0.00022243310784000002
69 *14:6 0.00028423114272
70 _35_:S 0.00040117644959999997
71 _26_:Y 0
72 _34_:S 0
73 _36_:S 0
74 *14:8 0
75 *14:11 0
*RES
82 *14:1 _26_:Y 1.232142857142857
83 *14:2 *14:3 4.249999999999999
84 *14:4 _36_:S 0.8214285714285714
85 *14:5 *14:2 5.4642857142857135
86 _37_:S *14:6 0.8214285714285714
87 *14:7 *14:5 2.7321428571428568
88 _28_:A *14:8 2.0535714285714284
89 *14:9 *14:10 2.4285714285714284
90 *14:6 *14:11 2.875
91 _35_:S *14:4 4.107142857142857
92 _26_:Y _26_:Y 0
93 *14:1 *14:2 0
94 _34_:S _34_:S 0
95 _34_:S *14:3 0
96 _36_:S _36_:S 0
97 *14:4 *14:5 0
98 _37_:S _37_:S 0
99 *14:6 *14:7 0
100 _28_:A _28_:A 0
101 *14:8 *14:9 0
102 *14:11 *14:10 0
103 _35_:S _35_:S 0
*END

*D_NET *15 0.00056408194508
*CONN
*I _34_:A0 I
*I _29_:X O
*CAP
76 *15:1 5.034052896000001e-05
77 *15:2 0.00051374141612
78 _29_:X 0
79 _34_:A0 0
*RES
104 *15:1 _29_:X 0.4107142857142857
105 *15:2 *15:3 5.767857142857142
106 _29_:X _29_:X 0
107 *15:1 *15:2 0
108 _34_:A0 _34_:A0 0
109 _34_:A0 *15:3 0
*END

*D_NET *16 0.00035222135724000006
*CONN
*I _35_:A0 I
*I _30_:X O
*CAP
80 *16:1 0.00030188082828000006
81 *16:3 5.034052896000001e-05
82 _30_:X 0
83 _35_:A0 0
*RES
110 *16:1 *16:2 3.339285714285714
111 *16:3 _35_:A0 0.4107142857142857
112 _30_:X _30_:X 0
113 _30_:X *16:1 0
114 *16:3 *16:2 0
115 _35_:A0 _35_:A0 0
*END

*D_NET *17 0.0010927762215600001
*CONN
*I _36_:A0 I
*I _31_:X O
*CAP
84 *17:1 0.00040117644959999997
85 *17:3 0.00043429369568000003
86 *17:5 0.00016728583584
87 *17:6 9.002024044000002e-05
88 _31_:X 0
89 *17:2 0
90 _36_:A0 0
*RES
116 *17:1 *17:2 4.107142857142857
117 *17:3 *17:4 4.857142857142857
118 *17:5 _36_:A0 1.6428571428571428
119 *17:6 *17:7 0.9107142857142857
120 _31_:X _31_:X 0
121 _31_:X *17:6 0
122 *17:1 *17:7 0
123 *17:2 *17:3 0
124 *17:5 *17:4 0
125 _36_:A0 _36_:A0 0
*END

*D_NET *18 0.0005096326155999999
*CONN
*I _37_:A0 I
*I _32_:X O
*CAP
91 *18:1 0.00012830406688
92 *18:2 0.00038132854871999994
93 _32_:X 0
94 _37_:A0 0
*RES
126 *18:1 _32_:X 1.232142857142857
127 *18:2 *18:3 4.249999999999999
128 _32_:X _32_:X 0
129 *18:1 *18:2 0
130 _37_:A0 _37_:A0 0
131 _37_:A0 *18:3 0
*END

*D_NET *19 0.00022099730576
*CONN
*I _38_:D I
*I _24_:X O
*CAP
95 *19:1 5.034052896000001e-05
96 *19:2 0.00011650281392
97 *19:4 5.415396288e-05
98 _24_:X 0
99 _38_:D 0
*RES
132 *19:1 _24_:X 0.4107142857142857
133 *19:2 *19:3 1.2142857142857142
134 *19:4 _38_:D 0.4508928571428571
135 _24_:X _24_:X 0
136 *19:1 *19:2 0
137 *19:4 *19:3 0
138 _38_:D _38_:D 0
*END

*D_NET *20 0.0008909760075999998
*CONN
*I _39_:D I
*I _23_:X O
*CAP
100 *20:1 0.00038132854871999994
101 *20:3 0.0005096474588799999
102 _23_:X 0
103 _39_:D 0
*RES
139 *20:1 *20:2 4.249999999999999
140 *20:3 _39_:D 5.249999999999999
141 _23_:X _23_:X 0
142 _23_:X *20:1 0
143 *20:3 *20:2 0
144 _39_:D _39_:D 0
*END

*D_NET *21 0.0008667387828799999
*CONN
*I _40_:D I
*I _22_:X O
*CAP
104 *21:1 0.00040117644959999997
105 *21:2 0.00011650281392
106 _40_:D 0.00034905951936000003
107 _22_:X 0
108 *21:4 0
*RES
145 *21:1 _22_:X 4.107142857142857
146 *21:2 *21:3 1.2142857142857142
147 _40_:D *21:4 3.558035714285714
148 _40_:D _40_:D 0
149 _22_:X _22_:X 0
150 *21:1 *21:2 0
151 *21:4 *21:3 0
*END

*D_NET *22 0.00048582304055999994
*CONN
*I _41_:D I
*I _33_:X O
*CAP
109 _41_:D 1.5172193919999998e-05
110 *22:1 0.00038132854871999994
111 *22:3 8.932229792e-05
112 _33_:X 0
*RES
152 _41_:D _41_:D 0.040178571428571425
153 *22:1 *22:2 4.249999999999999
154 *22:3 _33_:X 0.8214285714285714
155 _41_:D _41_:D 0
156 _41_:D *22:1 0
157 *22:3 *22:2 0
158 _33_:X _33_:X 0
*END

*D_NET *23 0.0030729935725600003
*CONN
*I _33_:B2 I
*I _24_:B2 I
*I _23_:B2 I
*I _22_:B2 I
*I _20_:A I
*I _19_:X O
*CAP
113 *23:1 5.034052896000001e-05
114 _20_:A 5.034052896000001e-05
115 *23:3 0.0006752384351999999
116 *23:4 0.00019595053436
117 *23:6 0.00038956437106000007
118 *23:5 0.00020919182110000001
119 *23:9 4.017137184e-05
120 *23:10 5.034052896000001e-05
121 *23:11 4.017137184e-05
122 *23:12 0.00075201237024
123 *23:13 0.00061967171004
124 _19_:X 0
125 _33_:B2 0
126 _23_:B2 0
127 _22_:B2 0
128 _24_:B2 0
*RES
159 *23:1 _19_:X 0.4107142857142857
160 _20_:A *23:2 0.4107142857142857
161 *23:3 *23:2 0.30357142857142855
162 *23:4 *23:5 2.1249999999999996
163 *23:6 *23:7 2.580357142857143
164 *23:6 *23:8 1.6428571428571428
165 *23:5 *23:8 2.276785714285714
166 *23:3 _22_:B2 6.571428571428571
167 *23:9 _24_:B2 0.30357142857142855
168 *23:10 *23:9 0.4107142857142857
169 *23:11 *23:10 0.30357142857142855
170 *23:12 *23:11 7.803571428571428
171 *23:13 *23:4 6.982142857142857
172 *23:1 *23:13 0
173 _19_:X _19_:X 0
174 _33_:B2 _33_:B2 0
175 _33_:B2 *23:4 0
176 _20_:A _20_:A 0
177 *23:3 *23:5 0
178 _23_:B2 _23_:B2 0
179 _23_:B2 *23:7 0
180 _22_:B2 _22_:B2 0
181 _24_:B2 _24_:B2 0
182 *23:12 *23:14 0
*END

*D_NET *24 0.00214567689792
*CONN
*I _33_:A2 I
*I _24_:A2 I
*I _23_:A2 I
*I _22_:A2 I
*I _20_:Y O
*CAP
129 *24:1 0.0004078111222
130 _20_:Y 0.0005960852944
131 _22_:A2 4.017137184e-05
132 _23_:A2 0.00071303060128
133 *24:4 5.034052896000001e-05
134 *24:5 0.00024891568132000004
135 *24:7 8.932229792e-05
136 _24_:A2 0
137 _33_:A2 0
*RES
183 *24:1 *24:2 4.553571428571428
184 _20_:Y *24:3 6.160714285714286
185 _22_:A2 *24:3 0.30357142857142855
186 _23_:A2 _24_:A2 7.3928571428571415
187 *24:4 _33_:A2 0.4107142857142857
188 *24:5 *24:6 2.7321428571428568
189 *24:7 _20_:Y 0.8214285714285714
190 _22_:A2 _22_:A2 0
191 _22_:A2 *24:1 0
192 _24_:A2 _24_:A2 0
193 _24_:A2 *24:2 0
194 _20_:Y _20_:Y 0
195 _23_:A2 _23_:A2 0
196 _33_:A2 _33_:A2 0
197 *24:4 *24:5 0
198 *24:7 *24:6 0
*END

*D_NET *25 0.00293868120412
*CONN
*I _33_:C1 I
*I _24_:C1 I
*I _23_:C1 I
*I _22_:C1 I
*I _21_:Y O
*CAP
138 *25:1 0.000743032816
139 _33_:C1 0.00028423114272
140 *25:3 0.00061967171004
141 *25:5 5.034052896000001e-05
142 *25:6 9.779659552000001e-05
143 *25:7 0.00032321291168
144 _24_:C1 8.932229792e-05
145 *25:9 0.00043429369568000003
146 _22_:C1 8.932229792e-05
147 *25:12 0.00020745720768000002
148 _23_:C1 0
149 *25:2 0
150 *25:13 0
151 *25:8 0
152 *25:11 0
153 _21_:Y 0
*RES
199 *25:1 _23_:C1 0.6071428571428571
200 _33_:C1 *25:2 2.875
201 *25:3 *25:4 6.982142857142857
202 *25:5 _22_:C1 0.4107142857142857
203 *25:6 *25:5 0.9107142857142857
204 *25:7 *25:6 3.2857142857142856
205 _24_:C1 *25:8 0.8214285714285714
206 *25:9 *25:10 4.857142857142857
207 _22_:C1 *25:11 0.8214285714285714
208 *25:12 _21_:Y 1.6428571428571428
209 *25:12 *25:8 0.30357142857142855
210 *25:1 *25:13 6.982142857142857
211 _23_:C1 _23_:C1 0
212 _33_:C1 _33_:C1 0
213 *25:2 *25:3 0
214 *25:13 *25:4 0
215 _22_:C1 _22_:C1 0
216 *25:7 *25:14 0
217 _24_:C1 _24_:C1 0
218 *25:8 *25:10 0
219 *25:11 *25:9 0
220 _21_:Y _21_:Y 0
*END

*D_NET *26 0.0036140135464
*CONN
*I _32_:A1 I
*I _31_:A1 I
*I _30_:A1 I
*I _29_:A1 I
*I _26_:A I
*I _25_:X O
*CAP
154 *26:1 0.00028423114272
155 *26:2 0.00012660920736
156 *26:3 4.017137184e-05
157 _25_:X 0.00067404883232
158 *26:5 0.00019595053436
159 _26_:A 5.034052896000001e-05
160 *26:8 0.00024524937376
161 *26:10 0.00061967171004
162 _29_:A1 0.0002062676048
163 _30_:A1 0.0004791399875199999
164 *26:14 4.017137184e-05
165 *26:15 4.43020701e-05
166 *26:16 8.286251159999999e-05
167 *26:17 0.00020197143089999993
168 *26:19 2.3813806740000006e-05
169 *26:21 7.67789537e-05
170 *26:23 0.00022243310784000002
171 _32_:A1 0
172 _31_:A1 0
173 *26:4 0
174 *26:7 0
175 *26:9 0
176 *26:12 0
177 *26:22 0
178 *26:20 0
179 *26:26 0
*RES
221 *26:1 _31_:A1 2.875
222 *26:2 *26:1 1.2142857142857142
223 *26:3 *26:4 0.30357142857142855
224 _25_:X *26:2 6.982142857142857
225 *26:5 *26:6 2.1249999999999996
226 _26_:A *26:7 0.4107142857142857
227 *26:8 *26:9 2.464285714285714
228 *26:10 *26:11 6.982142857142857
229 _29_:A1 *26:12 2.0535714285714284
230 _30_:A1 *26:13 4.928571428571428
231 *26:14 *26:13 0.30357142857142855
232 *26:15 *26:16 0.036033333333333334
233 *26:16 *26:17 0.10653333333333334
234 *26:17 *26:18 0.3243
235 *26:19 *26:20 0.15178571428571427
236 *26:21 *26:22 0.7589285714285713
237 *26:23 *26:24 2.4285714285714284
238 _25_:X _25_:X 0
239 _32_:A1 _32_:A1 0
240 _32_:A1 *26:23 0
241 _31_:A1 _31_:A1 0
242 *26:4 *26:21 0
243 _29_:A1 _29_:A1 0
244 _29_:A1 *26:5 0
245 *26:7 *26:6 0
246 _26_:A _26_:A 0
247 *26:8 *26:24 0
248 *26:9 *26:10 0
249 *26:12 *26:11 0
250 _30_:A1 _30_:A1 0
251 *26:14 *26:25 0
252 *26:22 *26:15 0
253 *26:20 *26:18 0
254 *26:26 *26:19 0
*END

*D_NET *27 0.0027180840187200003
*CONN
*I _32_:A2 I
*I _31_:A2 I
*I _30_:A2 I
*I _29_:A2 I
*I _28_:B I
*I _27_:X O
*CAP
180 *27:1 8.932229792e-05
181 *27:2 4.017137184e-05
182 *27:3 9.051190080000001e-05
183 *27:5 0.0004023660524799999
184 *27:6 4.017137184e-05
185 *27:7 0.00064615428352
186 *27:9 0.00012830406688
187 *27:10 4.017137184e-05
188 *27:11 2.3813806740000006e-05
189 *27:12 4.640188412000001e-05
190 *27:13 0.00018270924762000003
191 _27_:X 0.0005960852944
192 *27:16 0.00016946796088000002
193 *27:17 0.00022243310784000002
194 _32_:A2 0
195 _31_:A2 0
196 _28_:B 0
197 _29_:A2 0
198 _30_:A2 0
199 *27:15 0
*RES
255 *27:1 *27:2 0.8214285714285714
256 *27:2 _32_:A2 0.30357142857142855
257 *27:3 _31_:A2 0.30357142857142855
258 *27:3 *27:4 0.4107142857142857
259 *27:5 *27:4 0.30357142857142855
260 *27:5 *27:6 3.6964285714285707
261 *27:6 *27:1 0.30357142857142855
262 *27:7 *27:8 7.285714285714286
263 *27:9 *27:10 1.232142857142857
264 *27:10 _29_:A2 0.30357142857142855
265 *27:11 *27:12 0.15178571428571427
266 *27:12 *27:13 0.4107142857142857
267 *27:13 *27:14 1.9732142857142856
268 _27_:X *27:15 6.160714285714286
269 *27:16 *27:11 1.8214285714285714
270 *27:17 *27:7 2.4285714285714284
271 *27:1 *27:17 0
272 _32_:A2 _32_:A2 0
273 _31_:A2 _31_:A2 0
274 _31_:A2 *27:16 0
275 _28_:B _28_:B 0
276 _28_:B *27:7 0
277 *27:9 *27:8 0
278 _29_:A2 _29_:A2 0
279 _30_:A2 _30_:A2 0
280 _30_:A2 *27:11 0
281 *27:15 *27:14 0
282 _27_:X _27_:X 0
*END

*D_NET *28 0.00202366459248
*CONN
*I _32_:B2 I
*I _31_:B2 I
*I _30_:B2 I
*I _29_:B2 I
*I _28_:Y O
*CAP
200 _32_:B2 6.898398368e-05
201 *28:2 0.0002062676048
202 *28:3 4.017137184e-05
203 *28:4 0.00028423114272
204 _31_:B2 4.017137184e-05
205 _28_:Y 8.932229792e-05
206 *28:6 0.00056670656308
207 *28:8 0.0002062676048
208 *28:9 4.017137184e-05
209 _30_:B2 4.017137184e-05
210 *28:10 0.00024524937376
211 *28:11 0.00019595053436
212 *28:12 0
213 *28:5 0
214 _29_:B2 0
*RES
283 _32_:B2 *28:1 0.6071428571428571
284 *28:2 *28:1 2.0535714285714284
285 *28:3 *28:2 0.30357142857142855
286 *28:4 *28:3 2.875
287 _31_:B2 *28:4 0.30357142857142855
288 _28_:Y *28:5 0.8214285714285714
289 *28:6 *28:7 6.374999999999999
290 *28:8 *28:9 2.0535714285714284
291 *28:9 _29_:B2 0.30357142857142855
292 _30_:B2 *28:10 0.30357142857142855
293 *28:10 _28_:Y 2.464285714285714
294 *28:11 *28:6 2.1249999999999996
295 _32_:B2 _32_:B2 0
296 _31_:B2 _31_:B2 0
297 *28:12 *28:11 0
298 _28_:Y _28_:Y 0
299 *28:5 *28:6 0
300 *28:8 *28:7 0
301 _29_:B2 _29_:B2 0
302 _30_:B2 _30_:B2 0
*END

*D_NET *29 0.00050403963256
*CONN
*I _36_:X O
*I _22_:A1 I
*CAP
215 _22_:A1 5.034052896000001e-05
216 *29:2 0.00016946796088000002
217 *29:4 0.00028423114272
218 *29:1 0
219 _36_:X 0
*RES
303 _22_:A1 *29:1 0.4107142857142857
304 *29:2 *29:3 1.8214285714285714
305 *29:4 _36_:X 2.875
306 _22_:A1 _22_:A1 0
307 *29:1 *29:3 0
308 *29:4 *29:2 0
309 _36_:X _36_:X 0
*END

*D_NET *30 0.0010226760892000002
*CONN
*I _37_:X O
*I _24_:A1 I
*CAP
220 *30:1 5.034052896000001e-05
221 *30:2 0.0008050497244000001
222 *30:4 0.00016728583584
223 _24_:A1 0
224 _37_:X 0
*RES
310 *30:1 _24_:A1 0.4107142857142857
311 *30:2 *30:3 9.107142857142856
312 *30:4 _37_:X 1.6428571428571428
313 _24_:A1 _24_:A1 0
314 *30:1 *30:3 0
315 *30:4 *30:2 0
316 _37_:X _37_:X 0
*END

*D_NET *31 0.0009954334033199998
*CONN
*I _34_:X O
*I _23_:A1 I
*CAP
225 _23_:A1 0.0004791399875199999
226 *31:1 4.017137184e-05
227 *31:2 8.932229792e-05
228 *31:3 4.017137184e-05
229 *31:4 5.034052896000001e-05
230 *31:6 9.002024044000002e-05
231 *31:8 0.0002062676048
232 *31:5 0
233 _34_:X 0
*RES
317 _23_:A1 *31:1 4.928571428571428
318 *31:1 *31:2 0.30357142857142855
319 *31:2 *31:3 0.8214285714285714
320 *31:3 *31:4 0.30357142857142855
321 *31:4 *31:5 0.4107142857142857
322 *31:6 *31:7 0.9107142857142857
323 *31:8 _34_:X 2.0535714285714284
324 _23_:A1 _23_:A1 0
325 *31:5 *31:6 0
326 *31:8 *31:7 0
327 _34_:X _34_:X 0
*END

*D_NET *32 0.00050914220224
*CONN
*I _35_:X O
*I _33_:A1 I
*CAP
234 *32:1 0.00050914220224
235 _33_:A1 0
236 _35_:X 0
*RES
328 *32:1 _33_:A1 0.6071428571428571
329 *32:1 _35_:X 4.517857142857142
330 _33_:A1 _33_:A1 0
331 _35_:X _35_:X 0
*END

*D_NET *33 0.00071738440292
*CONN
*I input1:X O
*I _34_:A1 I
*CAP
237 *33:1 5.034052896000001e-05
238 *33:2 0.00046077626916000004
239 *33:4 0.0002062676048
240 _34_:A1 0
241 input1:X 0
*RES
332 *33:1 _34_:A1 0.4107142857142857
333 *33:2 *33:3 5.160714285714286
334 *33:4 input1:X 2.0535714285714284
335 _34_:A1 _34_:A1 0
336 *33:1 *33:2 0
337 *33:4 *33:3 0
338 input1:X input1:X 0
*END

*D_NET *34 0.00111873180564
*CONN
*I input2:X O
*I _29_:A3 I
*CAP
242 *34:1 0.0009904277387600001
243 input2:X 0.00012830406688
244 _29_:A3 0
245 *34:3 0
*RES
339 *34:1 *34:2 11.232142857142856
340 input2:X *34:3 1.232142857142857
341 _29_:A3 _29_:A3 0
342 _29_:A3 *34:1 0
343 *34:3 *34:2 0
344 input2:X input2:X 0
*END

*D_NET *35 0.0013238463836000003
*CONN
*I input3:X O
*I _31_:A3 I
*CAP
246 input3:X 0.0011040378937600002
247 *35:1 5.034052896000001e-05
248 *35:3 0.00016946796088000002
249 _31_:A3 0
250 *35:2 0
*RES
345 input3:X input3:X 0.30357142857142855
346 *35:1 _31_:A3 0.4107142857142857
347 input3:X *35:2 11.089285714285714
348 *35:3 *35:4 1.8214285714285714
349 input3:X input3:X 0
350 *35:1 *35:3 0
351 _31_:A3 _31_:A3 0
352 *35:2 *35:4 0
*END

*D_NET *36 0.0005221318110799999
*CONN
*I input4:X O
*I _32_:A3 I
*CAP
251 *36:1 0.00016728583584
252 *36:2 0.00035484597524
253 _32_:A3 0
254 input4:X 0
*RES
353 *36:1 input4:X 1.6428571428571428
354 *36:2 *36:3 3.946428571428571
355 _32_:A3 _32_:A3 0
356 _32_:A3 *36:2 0
357 *36:1 *36:3 0
358 input4:X input4:X 0
*END

*D_NET *37 0.0016836831064
*CONN
*I input5:X O
*I _30_:A3 I
*CAP
255 _30_:A3 8.41561776e-05
256 *37:2 0.0015995269288
257 *37:1 0
258 input5:X 0
*RES
359 _30_:A3 _30_:A3 0.040178571428571425
360 _30_:A3 *37:1 0.6071428571428571
361 *37:2 *37:3 18.21428571428571
362 _30_:A3 _30_:A3 0
363 *37:1 *37:2 0
364 input5:X input5:X 0
365 input5:X *37:3 0
*END

*D_NET *38 0.0014128265083999999
*CONN
*I input6:X O
*I _30_:B1 I
*CAP
259 *38:1 0.00014051025664
260 *38:3 0.00016946796088000002
261 input6:X 0.00110284829088
262 _30_:B1 0
263 *38:2 0
264 *38:5 0
*RES
366 *38:1 _30_:B1 0.9375
367 *38:1 *38:2 0.30357142857142855
368 *38:3 *38:4 1.8214285714285714
369 input6:X *38:5 11.5
370 input6:X input6:X 0
371 _30_:B1 _30_:B1 0
372 *38:2 *38:3 0
373 *38:5 *38:4 0
*END

*D_NET *39 0.0013246044900000003
*CONN
*I input7:X O
*I _21_:A I
*CAP
265 _21_:A 4.017137184e-05
266 *39:2 0.00016728583584
267 *39:3 0.00024891568132000004
268 *39:5 0.00032321291168
269 *39:7 7.67789537e-05
270 *39:9 0.00010604505498000002
271 input7:X 0.0003621946806399999
272 *39:6 0
273 *39:11 0
*RES
374 _21_:A *39:1 0.30357142857142855
375 *39:2 *39:1 1.6428571428571428
376 *39:3 *39:4 2.7321428571428568
377 *39:5 *39:6 3.2857142857142856
378 *39:7 *39:8 0.7589285714285713
379 *39:9 *39:8 0.8214285714285714
380 *39:9 *39:10 0.15178571428571427
381 input7:X *39:11 3.6964285714285707
382 _21_:A _21_:A 0
383 *39:2 *39:3 0
384 *39:6 *39:4 0
385 *39:5 *39:7 0
386 *39:11 *39:10 0
387 input7:X input7:X 0
*END

*D_NET *40 0.0007019168423999999
*CONN
*I input8:X O
*I _19_:A I
*I _25_:A I
*CAP
274 _25_:A 5.034052896000001e-05
275 *40:2 0.00032836340175999997
276 *40:1 0.00032321291168
277 input8:X 0
278 _19_:A 0
*RES
388 _25_:A *40:1 0.4107142857142857
389 *40:2 *40:3 3.642857142857143
390 *40:1 _19_:A 3.2857142857142856
391 _25_:A _25_:A 0
392 *40:1 *40:2 0
393 input8:X input8:X 0
394 input8:X *40:3 0
395 _19_:A _19_:A 0
*END

*D_NET *41 0.0023233742537599996
*CONN
*I input9:X O
*I _19_:B I
*I _27_:A I
*CAP
279 _19_:B 0.0002062676048
280 *41:2 0.00011883951157999999
281 _27_:A 0.00016728583584
282 *41:5 0.0010698754592
283 *41:3 4.640188412000001e-05
284 *41:7 0.00035250927758
285 input9:X 0.0003621946806399999
286 *41:1 0
287 *41:4 0
288 *41:8 0
*RES
396 _19_:B *41:1 2.0535714285714284
397 *41:2 *41:3 1.2410714285714284
398 _27_:A *41:4 1.6428571428571428
399 *41:5 *41:6 12.14285714285714
400 *41:3 *41:7 0.4107142857142857
401 *41:7 *41:5 3.9196428571428563
402 input9:X *41:8 3.6964285714285707
403 input9:X input9:X 0
404 _19_:B _19_:B 0
405 *41:1 *41:2 0
406 _27_:A _27_:A 0
407 *41:4 *41:5 0
408 *41:8 *41:6 0
*END

*D_NET *42 0.0034077874165200006
*CONN
*I output10:A I
*I _23_:B1 I
*I _36_:A1 I
*I _39_:Q O
*CAP
289 *42:1 0.00016728583584
290 *42:2 0.0010169103122400001
291 *42:4 0.00016728583584
292 *42:5 0.00019595053436
293 *42:7 0.0010638665219200002
294 *42:6 0.00043429369568000003
295 output10:A 0.0003621946806399999
296 _39_:Q 0
297 _36_:A1 0
298 _23_:B1 0
299 *42:8 0
300 *42:10 0
*RES
409 *42:1 _39_:Q 1.6428571428571428
410 *42:2 *42:3 11.535714285714285
411 *42:4 _36_:A1 1.6428571428571428
412 *42:5 *42:6 2.1249999999999996
413 *42:7 *42:8 11.089285714285714
414 *42:6 *42:9 4.857142857142857
415 output10:A *42:10 3.6964285714285707
416 output10:A output10:A 0
417 _39_:Q _39_:Q 0
418 *42:1 *42:3 0
419 *42:4 *42:2 0
420 _36_:A1 _36_:A1 0
421 _23_:B1 _23_:B1 0
422 _23_:B1 *42:5 0
423 *42:7 *42:6 0
424 *42:8 *42:11 0
425 *42:10 *42:9 0
*END

*D_NET *43 0.0034396065433600002
*CONN
*I output11:A I
*I _22_:B1 I
*I _29_:B1 I
*I _37_:A1 I
*I _40_:Q O
*CAP
301 *43:1 0.00035484597524
302 *43:3 0.00024524937376
303 *43:4 0.00032836340175999997
304 *43:5 6.898398368e-05
305 *43:6 0.0004901565744000001
306 _22_:B1 4.017137184e-05
307 *43:7 5.034052896000001e-05
308 *43:8 0.0004078111222
309 *43:10 0.00145368421152
310 _40_:Q 0
311 output11:A 0
312 _29_:B1 0
313 _37_:A1 0
314 *43:11 0
*RES
426 *43:1 *43:2 3.946428571428571
427 *43:3 output11:A 2.464285714285714
428 *43:4 *43:1 3.642857142857143
429 *43:5 _22_:B1 0.6071428571428571
430 *43:6 _29_:B1 5.044642857142857
431 _22_:B1 *43:6 0.30357142857142855
432 *43:7 _37_:A1 0.4107142857142857
433 *43:8 *43:9 4.553571428571428
434 *43:10 *43:5 15.19642857142857
435 _40_:Q _40_:Q 0
436 _40_:Q *43:1 0
437 *43:3 *43:2 0
438 output11:A output11:A 0
439 *43:10 *43:4 0
440 _22_:B1 _22_:B1 0
441 _29_:B1 _29_:B1 0
442 _37_:A1 _37_:A1 0
443 *43:7 *43:8 0
444 *43:11 *43:9 0
*END

*D_NET *44 0.00325247029322
*CONN
*I output12:A I
*I _24_:B1 I
*I _31_:B1 I
*I _35_:A1 I
*I _38_:Q O
*CAP
315 _38_:Q 5.034052896000001e-05
316 *44:2 0.00032836340175999997
317 output12:A 0.00024524937376
318 *44:5 2.3813806740000006e-05
319 *44:7 0.0006946881834
320 *44:9 0.00026215696806
321 _35_:A1 0.00013966282688
322 *44:10 0.00065939557026
323 _31_:B1 2.2375346880000003e-05
324 *44:12 0.00016290469804
325 *44:14 4.640188412000001e-05
326 *44:15 0.00026215696806
327 *44:17 0.00030855885217999997
328 *44:19 4.640188412000001e-05
329 *44:1 0
330 *44:4 0
331 _24_:B1 0
332 *44:6 0
333 *44:11 0
334 *44:20 0
*RES
445 _38_:Q *44:1 0.4107142857142857
446 *44:2 *44:3 3.642857142857143
447 output12:A *44:4 2.464285714285714
448 *44:5 *44:6 0.15178571428571427
449 *44:7 *44:8 1.2251333333333334
450 *44:9 *44:2 2.883928571428571
451 _35_:A1 _35_:A1 0.8214285714285714
452 *44:10 *44:11 7.437499999999999
453 _31_:B1 _31_:B1 0.11607142857142856
454 *44:12 *44:13 0.4107142857142857
455 *44:12 *44:14 1.2142857142857142
456 *44:14 *44:15 0.4107142857142857
457 *44:15 *44:16 2.883928571428571
458 *44:17 *44:16 0.4107142857142857
459 *44:17 *44:18 2.883928571428571
460 *44:19 *44:18 0.4107142857142857
461 _35_:A1 *44:20 0.4107142857142857
462 _38_:Q _38_:Q 0
463 *44:1 *44:2 0
464 *44:4 *44:3 0
465 output12:A output12:A 0
466 _24_:B1 _24_:B1 0
467 _24_:B1 *44:5 0
468 *44:6 *44:8 0
469 *44:9 *44:7 0
470 _35_:A1 _35_:A1 0
471 _35_:A1 *44:10 0
472 *44:11 *44:21 0
473 _31_:B1 _31_:B1 0
474 _31_:B1 *44:13 0
475 *44:20 *44:19 0
*END

*D_NET *45 0.00297794364764
*CONN
*I output13:A I
*I _32_:B1 I
*I _33_:B1 I
*I _41_:Q O
*CAP
335 *45:1 0.0009870925868799999
336 *45:2 0.0004028056578
337 *45:4 9.002024044000002e-05
338 *45:5 0.00075320197312
339 *45:7 9.779659552000001e-05
340 *45:8 6.135711584e-05
341 *45:9 6.353766696000002e-05
342 *45:12 0.00016728583584
343 *45:13 0.00035484597524
344 output13:A 0
345 *45:6 0
346 _32_:B1 0
347 *45:11 0
348 _41_:Q 0
349 _33_:B1 0
*RES
476 *45:1 output13:A 0.30357142857142855
477 *45:2 *45:3 1.6428571428571428
478 *45:4 *45:3 0.9107142857142857
479 *45:5 *45:6 0.30357142857142855
480 *45:5 *45:7 7.3928571428571415
481 *45:7 *45:8 0.9107142857142857
482 *45:8 _32_:B1 0.5267857142857142
483 *45:9 *45:10 0.6071428571428571
484 *45:1 *45:11 9.857142857142856
485 *45:12 _41_:Q 1.6428571428571428
486 *45:13 *45:14 3.946428571428571
487 *45:2 *45:15 2.7321428571428568
488 output13:A output13:A 0
489 *45:6 *45:4 0
490 _32_:B1 _32_:B1 0
491 *45:11 *45:9 0
492 _41_:Q _41_:Q 0
493 *45:12 *45:13 0
494 _33_:B1 _33_:B1 0
495 _33_:B1 *45:14 0
496 _41_:Q *45:15 0
*END

*D_NET *46 0.0021326015456400002
*CONN
*I clkbuf_1_1_0_clk:A I
*I clkbuf_1_0_0_clk:A I
*I clkbuf_0_clk:X O
*CAP
350 clkbuf_1_0_0_clk:A 8.932229792e-05
351 *46:2 0.0010963580326800002
352 *46:4 0.0009469212150399999
353 *46:1 0
354 clkbuf_1_1_0_clk:A 0
355 clkbuf_0_clk:X 0
*RES
497 clkbuf_1_0_0_clk:A *46:1 0.8214285714285714
498 *46:2 *46:3 12.44642857142857
499 *46:4 clkbuf_0_clk:X 9.857142857142856
500 clkbuf_1_0_0_clk:A clkbuf_1_0_0_clk:A 0
501 *46:1 *46:2 0
502 clkbuf_1_1_0_clk:A clkbuf_1_1_0_clk:A 0
503 clkbuf_1_1_0_clk:A *46:3 0
504 *46:4 *46:5 0
505 clkbuf_0_clk:X clkbuf_0_clk:X 0
*END

*D_NET *47 0.00145831654096
*CONN
*I _40_:CLK I
*I _41_:CLK I
*I clkbuf_1_0_0_clk:X O
*CAP
356 clkbuf_1_0_0_clk:X 0.00030491163008
357 _41_:CLK 6.898398368e-05
358 *47:1 0.00016728583584
359 *47:3 2.3813806740000006e-05
360 *47:5 4.017137184e-05
361 *47:6 3.0849644479999996e-05
362 *47:8 0.00043429369568000003
363 *47:10 0.00034160468850000003
364 *47:4 4.640188412000001e-05
365 *47:2 0
366 *47:7 0
367 _40_:CLK 0
*RES
506 clkbuf_1_0_0_clk:X clkbuf_1_0_0_clk:X 0.30357142857142855
507 _41_:CLK *47:1 0.6071428571428571
508 *47:1 *47:2 1.6428571428571428
509 *47:3 *47:4 0.15178571428571427
510 clkbuf_1_0_0_clk:X *47:5 2.669642857142857
511 *47:5 *47:6 0.30357142857142855
512 *47:6 *47:7 0.20535714285714285
513 *47:8 *47:9 4.857142857142857
514 *47:10 *47:8 3.7946428571428568
515 *47:4 *47:10 0.4107142857142857
516 clkbuf_1_0_0_clk:X clkbuf_1_0_0_clk:X 0
517 _41_:CLK _41_:CLK 0
518 *47:2 *47:3 0
519 *47:7 *47:8 0
520 _40_:CLK _40_:CLK 0
521 _40_:CLK *47:9 0
*END

*D_NET *48 0.00102568103028
*CONN
*I _38_:CLK I
*I _39_:CLK I
*I clkbuf_1_1_0_clk:X O
*CAP
368 *48:1 4.017137184e-05
369 *48:2 0.00014298538739999998
370 *48:4 0.00016847543872000001
371 clkbuf_1_1_0_clk:X 0.00067404883232
372 _39_:CLK 0
373 _38_:CLK 0
374 *48:5 0
*RES
522 *48:1 _39_:CLK 0.30357142857142855
523 *48:2 *48:3 1.5178571428571426
524 *48:4 *48:5 1.232142857142857
525 *48:4 *48:1 0.30357142857142855
526 clkbuf_1_1_0_clk:X *48:1 6.982142857142857
527 clkbuf_1_1_0_clk:X clkbuf_1_1_0_clk:X 0
528 _39_:CLK _39_:CLK 0
529 _38_:CLK _38_:CLK 0
530 _38_:CLK *48:2 0
531 *48:5 *48:3 0
*END

